Version 4
SHEET 1 54084 20244
WIRE 40000 9672 38590 6009
